<?xml version="1.0" encoding="UTF-8"?>

<!-- generated on 2024-02-08 14:50:18 by Eclipse SUMO sumo Version 1.19.0
-->

<configuration xmlns:xsi="http://www.w3.org/2001/XMLSchema-instance" xsi:noNamespaceSchemaLocation="http://sumo.dlr.de/xsd/sumoConfiguration.xsd">

    <input>
        <net-file value="primer%20ejerciocio.net.xml"/>
        <route-files value="primer%20ejerciocio.rou.xml"/>
    </input>

</configuration>
