<?xml version="1.0" encoding="UTF-8"?>

<!-- generated on 2024-03-21 09:42:58 by Eclipse SUMO netedit Version 1.19.0
<configuration xmlns:xsi="http://www.w3.org/2001/XMLSchema-instance" xsi:noNamespaceSchemaLocation="http://sumo.dlr.de/xsd/neteditConfiguration.xsd">

    <input>
        <sumo-net-file value="C:\Simulacion del trancon\Primer ejercicio\primer ejerciocio.net.xml"/>
    </input>

    <processing>
        <geometry.min-radius.fix.railways value="false"/>
        <geometry.max-grade.fix value="false"/>
        <offset.disable-normalization value="true"/>
        <lefthand value="0"/>
    </processing>

    <junctions>
        <no-turnarounds value="true"/>
        <junctions.corner-detail value="5"/>
        <junctions.limit-turn-speed value="5.50"/>
        <rectangular-lane-cut value="0"/>
    </junctions>

    <pedestrian>
        <walkingareas value="0"/>
    </pedestrian>

</configuration>
-->

<connections version="1.16" xmlns:xsi="http://www.w3.org/2001/XMLSchema-instance" xsi:noNamespaceSchemaLocation="http://sumo.dlr.de/xsd/connections_file.xsd">
    <connection from="-E6" to="E2" fromLane="0" toLane="0"/>

    <connection from="-E7" to="E1" fromLane="0" toLane="0"/>

    <connection from="E0" to="E7" fromLane="0" toLane="0"/>
    <connection from="E0" to="E1" fromLane="1" toLane="1"/>

    <connection from="E1" to="E6" fromLane="0" toLane="0"/>
    <connection from="E1" to="E2" fromLane="1" toLane="1"/>

    <connection from="E3" to="E4" fromLane="0" toLane="0"/>
    <connection from="E3" to="-E7" fromLane="1" toLane="0"/>

    <connection from="E4" to="E5" fromLane="0" toLane="0"/>
    <connection from="E4" to="-E6" fromLane="1" toLane="0"/>

    <connection from="E6" to="E5" fromLane="0" toLane="1"/>

    <connection from="E7" to="E4" fromLane="0" toLane="1"/>

</connections>
