<?xml version="1.0" encoding="UTF-8"?>

<!-- generated on 2024-03-21 09:42:58 by Eclipse SUMO netedit Version 1.19.0
<configuration xmlns:xsi="http://www.w3.org/2001/XMLSchema-instance" xsi:noNamespaceSchemaLocation="http://sumo.dlr.de/xsd/neteditConfiguration.xsd">

    <input>
        <sumo-net-file value="C:\Simulacion del trancon\Primer ejercicio\primer ejerciocio.net.xml"/>
    </input>

    <processing>
        <geometry.min-radius.fix.railways value="false"/>
        <geometry.max-grade.fix value="false"/>
        <offset.disable-normalization value="true"/>
        <lefthand value="0"/>
    </processing>

    <junctions>
        <no-turnarounds value="true"/>
        <junctions.corner-detail value="5"/>
        <junctions.limit-turn-speed value="5.50"/>
        <rectangular-lane-cut value="0"/>
    </junctions>

    <pedestrian>
        <walkingareas value="0"/>
    </pedestrian>

</configuration>
-->

<edges version="1.16" xmlns:xsi="http://www.w3.org/2001/XMLSchema-instance" xsi:noNamespaceSchemaLocation="http://sumo.dlr.de/xsd/edges_file.xsd">
    <edge id="-E6" from="J6" to="J2" priority="-1" numLanes="1" speed="13.89"/>
    <edge id="-E7" from="J5" to="J1" priority="-1" numLanes="1" speed="13.89"/>
    <edge id="E0" from="J0" to="J1" priority="-1" numLanes="2" speed="13.89"/>
    <edge id="E1" from="J1" to="J2" priority="-1" numLanes="2" speed="13.89"/>
    <edge id="E2" from="J2" to="J3" priority="-1" numLanes="2" speed="13.89"/>
    <edge id="E3" from="J4" to="J5" priority="-1" numLanes="2" speed="13.89"/>
    <edge id="E4" from="J5" to="J6" priority="-1" numLanes="2" speed="13.89"/>
    <edge id="E5" from="J6" to="J7" priority="-1" numLanes="2" speed="13.89"/>
    <edge id="E6" from="J2" to="J6" priority="-1" numLanes="1" speed="13.89"/>
    <edge id="E7" from="J1" to="J5" priority="-1" numLanes="1" speed="13.89"/>
</edges>
