<?xml version="1.0" encoding="UTF-8"?>

<!-- generated on 2024-03-21 09:42:58 by Eclipse SUMO netedit Version 1.19.0
<configuration xmlns:xsi="http://www.w3.org/2001/XMLSchema-instance" xsi:noNamespaceSchemaLocation="http://sumo.dlr.de/xsd/neteditConfiguration.xsd">

    <input>
        <sumo-net-file value="C:\Simulacion del trancon\Primer ejercicio\primer ejerciocio.net.xml"/>
    </input>

    <processing>
        <geometry.min-radius.fix.railways value="false"/>
        <geometry.max-grade.fix value="false"/>
        <offset.disable-normalization value="true"/>
        <lefthand value="0"/>
    </processing>

    <junctions>
        <no-turnarounds value="true"/>
        <junctions.corner-detail value="5"/>
        <junctions.limit-turn-speed value="5.50"/>
        <rectangular-lane-cut value="0"/>
    </junctions>

    <pedestrian>
        <walkingareas value="0"/>
    </pedestrian>

</configuration>
-->

<nodes version="1.16" xmlns:xsi="http://www.w3.org/2001/XMLSchema-instance" xsi:noNamespaceSchemaLocation="http://sumo.dlr.de/xsd/nodes_file.xsd">
    <location netOffset="0.00,0.00" convBoundary="-10.87,-88.67,732.17,87.10" origBoundary="-10000000000.00,-10000000000.00,10000000000.00,10000000000.00" projParameter="!"/>

    <node id="J0" x="-10.87" y="78.45" type="dead_end"/>
    <node id="J1" x="210.18" y="78.93" type="priority"/>
    <node id="J2" x="473.28" y="87.10" type="priority"/>
    <node id="J3" x="725.35" y="76.20" type="dead_end"/>
    <node id="J4" x="-10.42" y="-88.67" type="dead_end"/>
    <node id="J5" x="199.41" y="-85.94" type="priority"/>
    <node id="J6" x="478.73" y="-81.85" type="priority"/>
    <node id="J7" x="732.17" y="-88.67" type="dead_end"/>
</nodes>
