<?xml version="1.0" enconding="UTF-8"?>

<additional>
    <edgeData id="vehicle_data" file="flow_meas_veh.xml" edges = "E2 E5" begin = "7200"/>
</additional>